  9
        -11.39433937
 O         -1.1686445494       -0.2415184469        0.0563324427
 C         -0.0146050760        0.5611228144       -0.0327447617
 C          1.2750589693       -0.2515030754        0.0157612681
 H         -0.0401470860        1.1641268898       -0.9530748242
 H         -0.0683616062        1.2378497645        0.8229948344
 H          1.3403872860       -0.9158181304       -0.8450337745
 H          2.1344612474        0.4130099640        0.0069790736
 H          1.3034587601       -0.8528262394        0.9212835712
 H         -1.1391957092       -0.9020971497       -0.6449567113
  9
        -11.39186743
 O         -1.1209230581       -0.2822443152        0.0434471618
 C          0.0037779510        0.5675083858       -0.0492124479
 C          1.2591423941       -0.2891889660        0.0036917814
 H         -0.0228120080        1.1336593354       -0.9921487254
 H          0.0072657557        1.2873979408        0.7827188897
 H          1.2549517669       -0.9978558442       -0.8197099076
 H          2.1429511767        0.3386529387       -0.0657510531
 H          1.2847940496       -0.8456664410        0.9363766450
 H         -1.9234387094        0.2474916204        0.0112911824
