  9
        -11.39433939
 O         -1.1686541335        0.2414923758       -0.0563139208
 C         -0.0145923932       -0.5611261385        0.0327495044
 C          1.2750413870        0.2515127187       -0.0157785161
 H         -0.0399768211       -1.1639164395        0.9532180743
 H         -0.0684020221       -1.2380100713       -0.8228652121
 H          1.3403676787        0.9159515704        0.8449398735
 H          2.1344229192       -0.4130291564       -0.0068953819
 H          1.3033479415        0.8526711498       -0.9214289326
 H         -1.1389462903        0.9024263837        0.6446944200
  9
        -11.39186743
 O         -1.1209319382        0.2822244583       -0.0434344390
 C          0.0037887980       -0.5675058520        0.0492119551
 C          1.2591400077        0.2892088280       -0.0037140715
 H         -0.0227947702       -1.1337011099        0.9921234491
 H          0.0073066063       -1.2873578734       -0.7827498390
 H          1.2549794525        0.9977901186        0.8197652891
 H          2.1429646589       -0.3386246063        0.0656077578
 H          1.2847365432        0.8457769323       -0.9363414250
 H         -1.9234403207       -0.2475146860       -0.0111127317
