  9
        -11.39433937
 O         -1.1686445494       -0.2415184469        0.0563324427
 C         -0.0146050760        0.5611228144       -0.0327447617
 C          1.2750589693       -0.2515030754        0.0157612681
 H         -0.0401470860        1.1641268898       -0.9530748242
 H         -0.0683616062        1.2378497645        0.8229948344
 H          1.3403872860       -0.9158181304       -0.8450337745
 H          2.1344612474        0.4130099640        0.0069790736
 H          1.3034587601       -0.8528262394        0.9212835712
 H         -1.1391957092       -0.9020971497       -0.6449567113
