  9
        -11.39433939
 O         -1.1686377965        0.2415149942       -0.0563089145
 C         -0.0145979353       -0.5611422432        0.0327380972
 C          1.2750255888        0.2515245636       -0.0157647752
 H         -0.0400651541       -1.1642449225        0.9529832036
 H         -0.0683412021       -1.2378163357       -0.8230127285
 H          1.3033521738        0.8529516276       -0.9212656043
 H          1.3404585373        0.9156534446        0.8451624743
 H          2.1343993052       -0.4130410113       -0.0070995328
 H         -1.1389952826        0.9022823652        0.6447877528
  9
        -11.39186743
 O         -1.1209210754        0.2822329957       -0.0434324775
 C          0.0037851280       -0.5675162663        0.0491944573
 C          1.2591339182        0.2892075271       -0.0037034966
 H         -0.0227244298       -1.1335453398        0.9921934713
 H          0.0071985404       -1.2875201822       -0.7826525305
 H          1.2550402461        0.9979271724        0.8196711058
 H          2.1429480412       -0.3386316811        0.0656481005
 H          1.2846694424        0.8456350969       -0.9364120440
 H         -1.9234358026       -0.2474922076       -0.0111042441
