  9
        -11.39433938
 O         -1.1686782991        0.2414702178        0.0563043999
 C         -0.0145854315       -0.5611041560       -0.0327584524
 C          1.2750519726        0.2515010253        0.0157748018
 H         -0.0683631819       -1.2380108121        0.8228426272
 H         -0.0398354626       -1.1637962291       -0.9532550509
 H          1.3402880566        0.9162284636       -0.8447552148
 H          1.3032931041        0.8524209299        0.9215832571
 H          2.1345887006       -0.4129172551        0.0067535493
 H         -1.1389833158        0.9023974546       -0.6445299962
