  9
        -11.39433939
 O         -1.1686377965        0.2415149942       -0.0563089145
 C         -0.0145979353       -0.5611422432        0.0327380972
 C          1.2750255888        0.2515245636       -0.0157647752
 H         -0.0400651541       -1.1642449225        0.9529832036
 H         -0.0683412021       -1.2378163357       -0.8230127285
 H          1.3033521738        0.8529516276       -0.9212656043
 H          1.3404585373        0.9156534446        0.8451624743
 H          2.1343993052       -0.4130410113       -0.0070995328
 H         -1.1389952826        0.9022823652        0.6447877528
