  15
        -17.72299717
 O         -1.9215238157       -0.6951762950       -0.1258145526
 C          0.0694874447        0.7288586580       -0.2461363269
 C          1.0041366610       -0.3010802978        0.3846794452
 C         -1.3741969500        0.5530933171        0.2269227989
 C          2.4232009392       -0.1880393339       -0.1568886510
 H          0.4005521063        1.7375687947        0.0080533078
 H          0.1028149377        0.6311144967       -1.3358294662
 H          0.6130150547       -1.3014666651        0.1890103427
 H          1.0133712853       -0.1572002521        1.4670376691
 H         -1.4211141269        0.5908081158        1.3177215024
 H         -1.9955095197        1.3680750911       -0.1753115160
 H          2.8300863490        0.8012423293        0.0424261831
 H          3.0700849742       -0.9258184300        0.3115102639
 H          2.4386293932       -0.3528617601       -1.2324132428
 H         -1.8443702585       -0.8041589503       -1.0805358177
