  15
        -17.72299717
 O         -1.9215238157       -0.6951762950       -0.1258145526
 C          0.0694874447        0.7288586580       -0.2461363269
 C          1.0041366610       -0.3010802978        0.3846794452
 C         -1.3741969500        0.5530933171        0.2269227989
 C          2.4232009392       -0.1880393339       -0.1568886510
 H          0.4005521063        1.7375687947        0.0080533078
 H          0.1028149377        0.6311144967       -1.3358294662
 H          0.6130150547       -1.3014666651        0.1890103427
 H          1.0133712853       -0.1572002521        1.4670376691
 H         -1.4211141269        0.5908081158        1.3177215024
 H         -1.9955095197        1.3680750911       -0.1753115160
 H          2.8300863490        0.8012423293        0.0424261831
 H          3.0700849742       -0.9258184300        0.3115102639
 H          2.4386293932       -0.3528617601       -1.2324132428
 H         -1.8443702585       -0.8041589503       -1.0805358177
  15
        -17.72281626
 O         -2.3931118501       -0.0914322959       -0.3642114829
 C          0.0545701640       -0.0989945675       -0.3262693289
 C          1.2748893730        0.1843931483        0.5449527269
 C         -1.2531195656        0.1051262753        0.4389252760
 C          2.5755429625       -0.0287042430       -0.2199111171
 H          0.0595641494        0.5622615806       -1.1954514988
 H          0.0998137108       -1.1300797526       -0.6907127816
 H          1.2542680665       -0.4715037576        1.4185008498
 H          1.2284024342        1.2144858634        0.9042064314
 H         -1.2796805899       -0.5640966999        1.3125192968
 H         -1.3247238697        1.1353447274        0.7955349391
 H          2.6215027791        0.6298397454       -1.0842909482
 H          3.4317982137        0.1801791687        0.4168155455
 H          2.6502489431       -1.0564189221       -0.5688069363
 H         -2.3546081653       -0.9769470542       -0.7427090022
  15
        -17.72252105
 O         -2.0086458733       -0.6448142899       -0.1464901763
 C          0.0645069808        0.6673983252       -0.3004184254
 C          1.0310701524       -0.3191168655        0.3544319617
 C         -1.3635278149        0.5458321886        0.2374868985
 C          2.4567218669       -0.1223463372       -0.1463205544
 H          0.4124182047        1.6860328438       -0.1190324104
 H          0.0478044878        0.5017938239       -1.3795277987
 H          0.7204648068       -1.3447110597        0.1370987064
 H          1.0056588361       -0.1835740023        1.4390109381
 H         -1.3532101830        0.6383341876        1.3343261511
 H         -1.9827184329        1.3491932302       -0.1687878368
 H          2.5055053434       -0.2677113565       -1.2232160285
 H          2.8039472948        0.8835586493        0.0789335973
 H          3.1304646075       -0.8326186579        0.3273096642
 H         -1.4880236507       -1.3913957463        0.1691962451
  15
        -17.72213844
 O         -2.2663212257       -0.2498415132       -0.2781178830
 C         -0.0219982347        0.7164275636       -0.2001767504
 C          1.3789290727        0.5904799336        0.3969372972
 C         -0.9651034779       -0.4047545779        0.2389799913
 C          2.1527630452       -0.6095301487       -0.1362546312
 H         -0.4545633056        1.6730497821        0.1110943632
 H          0.0394417504        0.7192550634       -1.2904461397
 H          1.3014277424        0.5191541243        1.4845069501
 H          1.9358324384        1.5011599295        0.1645733803
 H         -0.6233262291       -1.3688585673       -0.1410337642
 H         -0.9932961533       -0.4533644974        1.3385581496
 H          1.6803717913       -1.5421268177        0.1598187942
 H          2.2026394463       -0.5773504431       -1.2222420208
 H          3.1680813366       -0.6049639391        0.2536762567
 H         -2.6041062890        0.6129432767       -0.0125490096
  15
        -17.72211746
 O         -1.7886203934       -0.7148535765        0.0434368857
 C          0.0129271821        0.8569334682       -0.4929161492
 C          1.0983953265       -0.2134832596       -0.6213294420
 C         -1.1111795449        0.4467656420        0.4608879728
 C          2.0106483194       -0.2789068085        0.5973784045
 H          0.4508881056        1.7911945071       -0.1370047843
 H         -0.4233708385        1.0467273667       -1.4787387298
 H          1.7022531871       -0.0001819620       -1.5063851103
 H          0.6182643997       -1.1832683473       -0.7674038835
 H         -0.7118524240        0.2092976281        1.4483089187
 H         -1.8193771110        1.2827684808        0.5690125910
 H          2.7864572898       -1.0259255802        0.4465331603
 H          2.4892820085        0.6833484424        0.7689058065
 H          1.4500436745       -0.5490678801        1.4882033326
 H         -2.1119916815       -0.5754157699       -0.8538659220
  15
        -17.72203480
 O         -2.2901858269       -0.2749371494       -0.0827536919
 C         -0.0367826729        0.2713473896        0.6876773972
 C          1.3696469194        0.6806801300        0.2523708857
 C         -0.9523136463       -0.0858507912       -0.4846456940
 C          2.1687932758       -0.4664511182       -0.3557757599
 H          0.0276671678       -0.5833285039        1.3681652901
 H         -0.4981902234        1.0981877173        1.2330359316
 H          1.9045945857        1.0580165271        1.1269598345
 H          1.2985951077        1.4970118335       -0.4693913369
 H         -0.9802936226        0.7369378373       -1.2030995709
 H         -0.5835584114       -0.9845474633       -0.9984298708
 H          2.2173597391       -1.3058791508        0.3347204463
 H          1.7185670537       -0.8077429644       -1.2840522543
 H          3.1845196883       -0.1432364575       -0.5715351621
 H         -2.3145900793       -0.9644189748        0.5900411596
  15
        -17.72182211
 O         -1.4549679245       -0.8820270188       -0.3307120077
 C          0.0054269037        1.0985801383       -0.0963964163
 C          1.2898399706        0.4642191526        0.4405196317
 C         -1.2724852670        0.3589001983        0.3089646034
 C          1.6140013106       -0.8754070169       -0.2100977384
 H         -0.0704311220        2.1194143690        0.2846526842
 H          0.0554864647        1.1544658405       -1.1881073610
 H          1.1930603116        0.3290684154        1.5198644786
 H          2.1174333988        1.1569946620        0.2665911715
 H         -1.2539663233        0.1337117667        1.3779101884
 H         -2.1386012947        1.0096548879        0.1097968965
 H          2.5342521424       -1.2817935485        0.2034667610
 H          0.8120279476       -1.5868762325       -0.0358204853
 H          1.7464109844       -0.7557742860       -1.2840504099
 H         -1.4045352171       -0.7458741129       -1.2835135177
  15
        -17.72152318
 O         -1.8314917290       -0.6973493661       -0.0215797390
 C         -0.0165196175        0.8886076090        0.4611890186
 C          1.1254116210       -0.1068855375        0.6830487576
 C         -1.0964181309        0.4000526120       -0.5088877642
 C          1.9832477107       -0.3295812460       -0.5578164194
 H         -0.4943174219        1.0984435875        1.4206713156
 H          0.3917312783        1.8239722486        0.0740621726
 H          0.7239992043       -1.0640700572        1.0276556044
 H          1.7600805263        0.2785634033        1.4843232645
 H         -1.8327931267        1.1929694375       -0.6611475149
 H         -0.6500165471        0.1588851198       -1.4838017475
 H          1.4112914737       -0.7903035566       -1.3595287442
 H          2.3782852138        0.6172124848       -0.9196103902
 H          2.8205917816       -0.9831057757       -0.3234271591
 H         -1.2181714430       -1.4181236910        0.1594470806
  15
        -17.72097339
 O         -1.6060443423       -0.8275395654       -0.3589866780
 C         -0.0283627184        1.0563279765       -0.1941893208
 C          1.3422280508        0.5701560071        0.2827875256
 C         -1.2123550351        0.2871254909        0.4055709046
 C          1.6522172553       -0.8771462483       -0.0876595154
 H         -0.1278659474        2.1099029305        0.0730152018
 H         -0.0906656729        0.9828495745       -1.2824204644
 H          1.4031542528        0.6838018588        1.3678710241
 H          2.1042131219        1.2172850773       -0.1579280775
 H         -0.9756162430       -0.0165110233        1.4365345841
 H         -2.0966953375        0.9282000922        0.4357704097
 H          2.6888592891       -1.1088063738        0.1481878261
 H          1.0274227987       -1.5704111387        0.4724734600
 H          1.5037854771       -1.0420177676       -1.1534984900
 H         -0.8408897821       -1.3990739448       -0.4856954878
  15
        -17.72057267
 O         -2.3351116388       -0.1642279381       -0.3969292478
 C          0.0465341035       -0.1202625878       -0.3096139502
 C          1.2799144044        0.2094142012        0.5249533166
 C         -1.2485494245        0.1661690029        0.4421917650
 C          2.5665892030       -0.0809202753       -0.2377692333
 H          0.0478305243        0.4674522294       -1.2289410765
 H          0.0550401472       -1.1744369876       -0.5910836796
 H          1.2620993150       -0.3791039539        1.4453352861
 H          1.2546486367        1.2646781600        0.8070196670
 H         -1.2817694062       -0.4305599143        1.3661522085
 H         -1.2887929859        1.2297964410        0.7214268663
 H          2.6182166405       -1.1323757826       -0.5108870298
 H          2.6107185076        0.5110999160       -1.1490029274
 H          3.4351191282        0.1594506848        0.3709786797
 H         -3.1590675291        0.0126739765        0.0676720519
  15
        -17.72045319
 O         -1.8756816551       -0.6880110766       -0.1601173239
 C          0.0644501762        0.7027262205       -0.2818740773
 C          1.0101819187       -0.2956032224        0.3807819072
 C         -1.3626470371        0.5659575932        0.2390543920
 C          2.4236595724       -0.1899153183       -0.1761749488
 H          0.4078308420        1.7229364840       -0.0988870827
 H          0.0528131256        0.5297524543       -1.3590256555
 H          0.6223204982       -1.3015472558        0.2160569839
 H          1.0283606958       -0.1139722743        1.4582272434
 H         -1.3665243891        0.6493263744        1.3360614192
 H         -1.9835983718        1.3773163541       -0.1696803259
 H          2.8248739034        0.8087403400       -0.0145434733
 H          3.0806783722       -0.9067377897        0.3107457290
 H          2.4282989317       -0.3911969362       -1.2450318280
 H         -2.7702689695       -0.7858571575        0.1798012489
  15
        -17.72001046
 O         -1.5205207797       -0.8565594226       -0.3172901013
 C          0.0200139479        1.0561638264       -0.0748101540
 C          1.1756346286        0.2866622885        0.5807988446
 C         -1.3554133673        0.4401507459        0.2019950784
 C          1.8201202948       -0.7310262362       -0.3572054831
 H         -0.0058722550        2.0795598958        0.3032750555
 H          0.1785846045        1.1005732855       -1.1533405510
 H          0.8142217286       -0.2158613744        1.4827219707
 H          1.9446435386        0.9943143258        0.8973977411
 H         -1.5414202383        0.4409502148        1.2871839641
 H         -2.1303605968        1.0439324717       -0.2769993891
 H          2.5814529762       -1.3035056094        0.1690238905
 H          1.0877798784       -1.4244134680       -0.7636163574
 H          2.2953223168       -0.2205085003       -1.1922165167
 H         -0.8735642853       -1.4337289500        0.1031160331
  15
        -17.71981509
 O         -2.2526710281       -0.2457822614       -0.1775021969
 C         -0.0416389141       -0.2100720121        0.6997600264
 C          1.3638678136        0.3817763684        0.6216904614
 C         -0.9492897588        0.2308541166       -0.4444433191
 C          2.1715217251       -0.1391306187       -0.5619821580
 H          0.0106286090       -1.2998987463        0.7022041174
 H         -0.5178447186        0.0994047065        1.6318696907
 H          1.8917799720        0.1331743746        1.5448387662
 H          1.2952617827        1.4705779913        0.5635807379
 H         -0.9504798901        1.3293788973       -0.5126360367
 H         -0.5872218417       -0.1742447266       -1.3992061778
 H          2.2124234146       -1.2258466674       -0.5445099106
 H          1.7310019166        0.1742399105       -1.5048508821
 H          3.1892363037        0.2426078313       -0.5209311941
 H         -2.8374138934        0.0129603057       -0.8966767296
  15
        -17.71936644
 O         -1.7816650963       -0.6837683255        0.0151373114
 C         -0.0041872780        0.8109390496       -0.5456398144
 C          1.0927272103       -0.2516846166       -0.6225004286
 C         -1.0948781351        0.4663801196        0.4647398130
 C          2.0316190496       -0.2302514308        0.5779969906
 H          0.4282699843        1.7774372773       -0.2797007720
 H         -0.4800683246        0.9023067117       -1.5232604920
 H          1.6772637779       -0.0836387687       -1.5295689117
 H          0.6185891362       -1.2303059250       -0.7057884968
 H         -0.6544606869        0.2868699297        1.4550517233
 H         -1.7909413762        1.3144587497        0.5507763354
 H          2.8145494832       -0.9753570497        0.4566124831
 H          2.5008928906        0.7467554759        0.6780415801
 H          1.4980345043       -0.4500269826        1.4991855397
 H         -2.4645959818       -0.9126748006        0.6526925963
  15
        -17.71883400
 O         -1.4406491172       -0.9152375658       -0.0492315714
 C         -0.0165549778        0.9391296873        0.5400059791
 C          1.3066790477        0.5901722474       -0.1423867027
 C         -1.2523799485        0.4733614786       -0.2282928411
 C          1.6384608408       -0.8945304261       -0.0651298426
 H         -0.0452634255        0.4885747963        1.5329446278
 H         -0.0853365245        2.0233946415        0.6515393845
 H          2.1056478368        1.1610563343        0.3375686607
 H          1.2623109975        0.9026267688       -1.1887412124
 H         -2.1324184681        1.0179604922        0.1464970008
 H         -1.1355022120        0.7091119132       -1.2966529392
 H          0.8346031422       -1.4851618732       -0.4929843042
 H          2.5595841751       -1.1074852213       -0.6036292473
 H          1.7658418021       -1.1986271234        0.9712216382
 H         -2.2353751284       -1.1881946117       -0.5179116009
