  12
        -14.55859619
 O          1.8194778733       -0.0957517343       -0.0533619375
 C         -0.5906190971       -0.5279485059       -0.0202394927
 C          0.5440793338        0.4958936080        0.0282733576
 C         -1.9554669243        0.1467394595        0.0032219023
 H         -0.4854085311       -1.1249157215       -0.9283931647
 H         -0.5003393773       -1.2029016603        0.8363497980
 H          0.4812881949        1.1678758808       -0.8308701424
 H          0.4589578758        1.0992801544        0.9449969282
 H         -2.0701816801        0.8039833748       -0.8553937905
 H         -2.7476355324       -0.5972715008       -0.0240317824
 H         -2.0720549924        0.7410344097        0.9070069512
 H          1.9102873568       -0.7337775238        0.6632433761
  12
        -14.55841248
 O          1.4253474122        0.0995665574        0.5533854405
 C         -0.6857210881       -0.4545497076       -0.5614826605
 C          0.6717144181        0.2480592869       -0.6263704021
 C         -1.5690812641        0.1311968715        0.5333720808
 H         -1.1753423563       -0.3570902934       -1.5319350492
 H         -0.5250597919       -1.5204596140       -0.3730643719
 H          1.2402816954       -0.1276784674       -1.4910353128
 H          0.5327876055        1.3248613629       -0.7466664453
 H         -1.0473479338        0.1062428086        1.4872155539
 H         -1.8149128557        1.1659500989        0.3069386910
 H         -2.4937162704       -0.4335986982        0.6250498700
 H          1.5225141296       -0.8414764208        0.7382809025
  12
        -14.55814502
 O          1.4665020587        0.0951550328       -0.5468509781
 C         -0.6585174842       -0.5130042826        0.5275113938
 C          0.6857658774        0.2144003411        0.6178952002
 C         -1.6123283665        0.1425308642       -0.4665653630
 H         -0.4770298834       -1.5488251450        0.2347860553
 H         -1.1118228266       -0.5142655390        1.5201141361
 H          0.5139800745        1.2752927081        0.8560220496
 H          1.2916410857       -0.2226613382        1.4151570205
 H         -1.7712657806        1.1887267461       -0.2108761641
 H         -1.2224491726        0.0880449847       -1.4817149459
 H         -2.5748488490       -0.3628217299       -0.4536502328
 H          0.9614744792        0.4458637892       -1.2886251075
  12
        -14.55638085
 O          1.7786969612       -0.1490587057       -0.0283103050
 C         -0.5746202390       -0.5308504347       -0.0258850158
 C          0.5336810269        0.5152433197        0.0252906528
 C         -1.9557919931        0.1064986589        0.0277571694
 H         -0.4600539330       -1.1078641046       -0.9445704721
 H         -0.4409059473       -1.2143107247        0.8137801361
 H          0.4305098336        1.2069285289       -0.8243161469
 H          0.4497556262        1.0993980278        0.9540410364
 H         -2.0996917949        0.7812296381       -0.8135057911
 H         -2.7261766883       -0.6592089828       -0.0101949303
 H         -2.0804590517        0.6745735010        0.9472135761
 H          2.4864020652        0.5022424855        0.0032571424
  12
        -14.55588570
 O          1.3881774558        0.0210727356        0.5558821708
 C         -0.6689433403       -0.4571478672       -0.5628404760
 C          0.6553705397        0.2986198165       -0.6192660013
 C         -1.5753387335        0.0782869091        0.5380202101
 H         -1.1611451625       -0.3712007307       -1.5333821799
 H         -0.4510953667       -1.5095723909       -0.3766405920
 H          1.2246562364       -0.0203489572       -1.5054380169
 H          0.4622088182        1.3781883969       -0.7046440482
 H         -1.8389332256        1.1162506019        0.3451617058
 H         -2.4900409957       -0.5063377813        0.5965874775
 H         -1.0617371039        0.0219848135        1.4937311815
 H          2.2146977426        0.5127034735        0.5359122232
